testcases/case13659pegase_OPF2.m
function mpc = case13659pegase_OPF2
%CASE13659PEGASE_OPF2

%% MATPOWER Case Format : Version 2
mpc.version = '2';

%%-----  Power Flow Data  -----%%
%% system MVA base
mpc.baseMVA = 100;

%% bus data
%	bus_i	type	Pd	Qd	Gs	Bs	area	Vm	Va	baseKV	zone	Vmax	Vmin
mpc.bus = [
	1	3	0	0	0	0	0	1	0	20	6	1.2	0.8;
	2	1	72.68	45	0	6.61	0	1	0	150	9	1.2	0.8;
	3	1	378.4	98.5	0	16.61	0	1	0	220	6	1.2	0.8;
	4	1	134	19.1	0	0.08	0	1	0	154	1	1.2	0.8;
	5	1	151	48.8	0	4.69	0	1	0	220	5	1.2	0.8;
	6	1	171.41	23.4	0	2.1	0	1	0	220	5	1.2	0.8;
	7	1	45.95	14	0	13.34	0	1	0	220	6	1.2	0.8;
	8	1	343.4	53.1	0	36.83	0	1	0	380	6	1.2	0.8;
	9	1	0	0	0	75.08	0	1	0	380	5	1.2	0.8;
	10	1	31.03	10.3	0	0.65	0	1	0	110	21	1.2	0.8;
	11	1	0	0	0	3.41	0	1	0	154	1	1.2	0.8;
	12	2	0	0	0	0	0	1	0	20	3	1.2	0.8;
	13	1	14.3	2	0	1.91	0	1	0	154	1	1.2	0.8;
	14	1	134	24.7	0	12.44	0	1	0	220	5	1.2	0.8;
	15	1	0	0	0	0	0	1	0	150	9	1.2	0.8;
	16	1	-6.11	2	0	0.47	0	1	0	150	9	1.2	0.8;
	17	1	-22.74	-8.32	0	6.5	0	1	0	220	6	1.2	0.8;
	18	2	0	0	0	0	0	1	0	20	14	1.2	0.8;
	19	1	59.67	26.7	0	12.84	0	1	0	220	4	1.2	0.8;
	20	1	30.6	4.3	0	5.15	0	1	0	154	1	1.2	0.8;
	21	1	0	0	0	-0.2	0	1	0	380	6	1.2	0.8;
	22	1	67.67	12.1	0	2.18	0	1	0	220	3	1.2	0.8;
	23	1	0	0	0	20.6	0	1	0	380	3	1.2	0.8;
	24	1	25.33	7.5	0	2.39	0	1	0	110	12	1.2	0.8;
	25	1	1.4	0.2	0	4.93	0	1	0	154	1	1.2	0.8;
	26	1	161.2	39.3	0	30.71	0	1	0	220	5	1.2	0.8;
	27	1	0	0	0	0.85	0	1	0	220	5	1.2	0.8;
	28	1	19.62	7.1	0	1.15	0	1	0	110	19	1.2	0.8;
	29	2	0	0	0	0	0	1	0	20	18	1.2	0.8;
	30	1	31.94	8.8	0	0.73	0	1	0	110	22	1.2	0.8;
	31	1	0	0	0	0.31	0	1	0	220	3	1.2	0.8;
	32	1	167.3	54.8	0	110.54	0	1	0	380	5	1.2	0.8;
	33	2	0	0	0	0	0	1	0	20	4	1.2	0.8;
	34	1	0	0	0	14.82	0	1	0	380	13	1.2	0.8;
	35	1	0	0	0	0	0	1	0	150	9	1.2	0.8;
	36	1	152.9	49.4	0	27.65	0	1	0	380	5	1.2	0.8;
	37	1	0	0	0	0.56	0	1	0	150	9	1.2	0.8;
	38	1	69.68	43.2	0	6.3	0	1	0	150	9	1.2	0.8;
	39	2	0	0	0	0	0	1	0	20	9	1.2	0.8;
	40	1	0	0	0	37.54	0	1	0	220	4	1.2	0.8;
	41	1	0	0	0	0.25	0	1	0	220	4	1.2	0.8;
	42	2	0	0	0	0	0	1	0	11	1	1.2	0.8;
	43	1	13.51	4.9	0	1.8	0	1	0	110	19	1.2	0.8;
	44	1	10.51	3.5	0	0.31	0	1	0	110	12	1.2	0.8;
	45	2	0	0	0	0	0	1	0	20	4	1.2	0.8;
	46	1	0	0	0	15.34	0	1	0	220	19	1.2	0.8;
	47	1	9.21	2.6	0	2	0	1	0	110	18	1.2	0.8;
	48	1	42.75	12.8	0	13.3	0	1	0	220	8	1.2	0.8;
	49	1	0	0	0	0.32	0	1	0	150	10	1.2	0.8;
	50	1	16.02	4.54	0	0.1	0	1	0	110	23	1.2	0.8;
	51	2	0	0	0	0	0	1	0	14.4	1	1.2	0.8;
	52	1	27.9	4	0	4.23	0	1	0	154	1	1.2	0.8;
	53	1	20.82	7.9	0	26.89	0	1	0	380	4	1.2	0.8;
	54	2	0	0	0	0	0	1	0	20	14	1.2	0.8;
	55	1	0	0	0	7.27	0	1	0	220	5	1.2	0.8;
	56	1	10.11	3.7	0	0.81	0	1	0	110	19	1.2	0.8;
	57	1	10.01	2.7	0	1.14	0	1	0	110	18	1.2	0.8;
	58	1	6.31	0	0	0.67	0	1	0	110	18	1.2	0.8;
	59	1	2.9	0.9	0	0.6	0	1	0	110	15	1.2	0.8;
	60	1	0	0	0	17.76	0	1	0	220	6	1.2	0.8;
	61	1	0	0	0	0.43	0	1	0	380	2	1.2	0.8;
	62	2	0	0	0	0	0	1	0	20	5	1.2	0.8;
	63	2	0	0	0	0	0	1	0	20	5	1.2	0.8;
	64	1	151.8	48.3	0	5.53	0	1	0	220	4	1.2	0.8;
	65	1	127.6	31.8	0	20.51	0	1	0	150	8	1.2	0.8;
	66	2	0	0	0	0	0	1	0	20	22	1.2	0.8;
	67	1	0	0	0	0.84	0	1	0	110	21	1.2	0.8;
	68	2	0	0	0	0	0	1	0	20	4	1.2	0.8;
	69	2	0	0	0	0	0	1	0	20	4	1.2	0.8;
	70	1	110.5	-26.8	0	16.37	0	1	0	220	6	1.2	0.8;
	71	1	0	0	0	0	0	1	0	20	5	1.2	0.8;
	72	1	0	0	0	0	0	1	0	20	5	1.2	0.8;
	73	1	0	0	0	1.23	0	1	0	220	3	1.2	0.8;
	74	1	0	0	0	0	0	1	0	20	5	1.2	0.8;
	75	1	0	0	0	0	0	1	0	20	5	1.2	0.8;
	76	1	0	0	0	0	0	1	0	20	5	1.2	0.8;
	77	2	0	0	0	0	0	1	0	20	5	1.2	0.8;
	78	2	0	0	0	0	0	1	0	20	5	1.2	0.8;
	79	2	0	0	0	0	0	1	0	20	5	1.2	0.8;
	80	1	140	79.7	0	6.5	0	1	0	220	3	1.2	0.8;
	81	1	21.6	3	0	3.54	0	1	0	154	1	1.2	0.8;
	82	1	0	0	0	2.31	0	1	0	380	5	1.2	0.8;
	83	1	119.2	20.7	0	3.31	0	1	0	220	5	1.2	0.8;
	84	1	26.43	9.9	0	9.57	0	1	0	110	22	1.2	0.8;
	85	1	0.24	-1.66	0	0.65	0	1	0	110	18	1.2	0.8;
	86	2	0	0	0	0	0	1	0	20	6	1.2	0.8;
	87	1	0	0	0	0	0	1	0	20	6	1.2	0.8;
	88	1	0	0	0	0	0	1	0	20	6	1.2	0.8;
	89	1	0	0	0	58.57	0	1	0	380	3	1.2	0.8;
	90	1	0	0	0	1.34	0	1	0	110	18	1.2	0.8;
	91	1	187.9	110.2	0	21.25	0	1	0	380	3	1.2	0.8;
	92	1	14.92	5.5	0	1.31	0	1	0	110	15	1.2	0.8;
	93	1	-18.52	6.1	0	0.79	0	1	0	150	9	1.2	0.8;
	94	2	0	0	0	0	0	1	0	11	1	1.2	0.8;
	95	1	4.61	1.7	0	2.32	0	1	0	110	19	1.2	0.8;
	96	2	0	0	0	0	0	1	0	20	4	1.2	0.8;
	97	2	0	0	0	0	0	1	0	20	4	1.2	0.8;
	98	2	0	0	0	0	0	1	0	20	4	1.2	0.8;
	99	2	0	0	0	0	0	1	0	20	4	1.2	0.8;
	100	2	0	0	0	0	0	1	0	20	4	1.2	0.8;
	101	2	0	0	0	0	0	1	0	20	4	1.2	0.8;
	102	2	0	0	0	0	0	1	0	20	4	1.2	0.8;
	103	1	62.87	20.5	0	1.15	0	1	0	150	8	1.2	0.8;
	104	2	0	0	0	0	0	1	0	20	3	1.2	0.8;
	105	1	13.5	14.8	0	132.44	0	1	0	380	9	1.2	0.8;
	106	1	126.3	42.4	0	55.24	0	1	0	150	8	1.2	0.8;
	107	2	0	0	0	0	0	1	0	20	3	1.2	0.8;
	108	1	6.91	-4.6	0	5.75	0	1	0	220	4	1.2	0.8;
	109	1	15.72	5.2	0	0.11	0	1	0	110	12	1.2	0.8;
	110	2	0	0	0	0	0	1	0	20	3	1.2	0.8;
	111	1	16.12	4.3	0	0.49	0	1	0	110	23	1.2	0.8;
	112	1	38.74	6.1	0	1.17	0	1	0	220	4	1.2	0.8;
	113	1	22.13	10.7	0	14.21	0	1	0	220	8	1.2	0.8;
	114	2	0	0	0	0	0	1	0	20	4	1.2	0.8;
	115	2	0	0	0	0	0	1	0	20	10	1.2	0.8;
	116	1	0	0	0	0.73	0	1	0	220	4	1.2	0.8;
	117	1	0	0	0	0.83	0	1	0	110	18	1.2	0.8;
	118	1	138.8	136.7	0	8.76	0	1	0	380	3	1.2	0.8;
	119	1	137.3	66.4	0	14.17	0	1	0	220	23	1.2	0.8;
	120	1	67.76	19.18	0	1.47	0	1	0	150	1	1.2	0.8;
	121	2	0	0	0	0	0	1	0	20	14	1.2	0.8;
	122	1	0	0	0	6.62	0	1	0	220	3	1.2	0.8;
	123	1	0	0	0	7.22	0	1	0	380	1	1.2	0.8;
	124	1	1	0.3	0	0.19	0	1	0	110	19	1.2	0.8;
	125	1	20.9	3	0	5.74	0	1	0	154	1	1.2	0.8;
	126	1	0	0	0	0.12	0	1	0	150	9	1.2	0.8;
	127	1	21.52	5.1	0	0.5	0	1	0	110	18	1.2	0.8;
	128	1	71.98	28.8	0	11	0	1	0	220	6	1.2	0.8;
	129	1	0	0	0	4.47	0	1	0	380	2	1.2	0.8;
	130	1	363.25	115.39	0	3.95	0	1	0	220	5	1.2	0.8;
	131	1	192.9	73.3	0	20.75	0	1	0	380	3	1.2	0.8;
	132	2	0	0	0	0	0	1	0	11	1	1.2	0.8;
	133	2	0	0	0	0	0	1	0	20	14	1.2	0.8;
	134	2	0	0	0	0	0	1	0	20	4	1.2	0.8;
	135	2	0	0	0	0	0	1	0	20	4	1.2	0.8;
	136	2	0	0	0	0	0	1	0	20	3	1.2	0.8;
	137	1	17.52	6.3	0	0.26	0	1	0	110	19	1.2	0.8;
	138	1	33.14	12	0	0.65	0	1	0	110	19	1.2	0.8;
	139	1	40.44	25	0	9.82	0	1	0	150	9	1.2	0.8;
	140	1	193.17	53.37	0	4.58	0	1	0	220	5	1.2	0.8;
	141	1	90.7	25.5	0	3.11	0	1	0	220	3	1.2	0.8;
	142	1	176.3	-58.9	0	24.77	0	1	0	380	6	1.2	0.8;
	143	1	35.94	22.3	0	0	0	1	0	150	9	1.2	0.8;
	144	2	0	0	0	0	0	1	0	20	14	1.2	0.8;
	145	2	0	0	0	0	0	1	0	20	5	1.2	0.8;
	146	2	0	0	0	0	0	1	0	20	5	1.2	0.8;
	147	2	0	0	0	0	0	1	0	20	5	1.2	0.8;
	148	1	143.9	123.2	0	72.64	0	1	0	380	3	1.2	0.8;
	149	1	0	0	0	3.77	0	1	0	220	6	1.2	0.8;
	150	1	0	8.4	0	15.72	0	1	0	150	9	1.2	0.8;
	151	2	0	0	0	0	0	1	0	13.8	1	1.2	0.8;
	152	1	51.36	-8.8	0	2.15	0	1	0	220	6	1.2	0.8;
	153	2	0	0	0	0	0	1	0	20	14	1.2	0.8;
	154	2	0	0	0	0	0	1	0	20	3	1.2	0.8;
	155	1	0	0	0	82.55	0	1	0	380	6	1.2	0.8;
	156	2	0	0	0	0	0	1	0	20	6	1.2	0.8;
	157	1	322.7	11.9	0	10.28	0	1	0	380	6	1.2	0.8;
	158	1	303.6	79.8	0	1.69	0	1	0	220	5	1.2	0.8;
	159	1	3.8	1.3	0	0.4	0	1	0	110	18	1.2	0.8;
	160	1	137	19.5	0	4.9	0	1	0	154	1	1.2	0.8;
	161	2	0	0	0	0	0	1	0	20	6	1.2	0.8;
	162	2	0	0	0	0	0	1	0	20	6	1.2	0.8;
	163	1	0	0	0	0	0	1	0	150	9	1.2	0.8;
	164	1	61.07	36	0	3.09	0	1	0	220	11	1.2	0.8;
	165	2	0	0	0	0	0	1	0	20	4	1.2	0.8;
	166	1	0	0	0	3.24	0	1	0	220	3	1.2	0.8;
	167	1	0	0	0	6.52	0	1	0	380	5	1.2	0.8;
	168	1	55.7	7.9	0	4.21	0	1	0	154	1	1.2	0.8;
	169	1	0	0	0	4.21	0	1	0	220	5	1.2	0.8;
	170	1	1.8	0.7	0	0.3	0	1	0	110	19	1.2	0.8;
	171	1	0	0	0	0.71	0	1	0	150	9	1.2	0.8;
	172	1	2.5	0	0	0.96	0	1	0	110	18	1.2	0.8;
	173	1	0	0	0	0.09	0	1	0	150	9	1.2	0.8;
	174	1	38.94	11	0	0.64	0	1	0	110	1	1.2	0.8;
	175	1	45.15	14.1	0	0.19	0	1	0	110	15	1.2	0.8;
	176	1	0	0	0	5.75	0	1	0	220	3	1.2	0.8;
	177	1	0	0	0	4.36	0	1	0	220	11	1.2	0.8;
	178	1	0	0	0	-0.24	0	1	0	220	5	1.2	0.8;
	179	2	0	0	0	0	0	1	0	20	4	1.2	0.8;
	180	1	17.22	5.7	0	1.22	0	1	0	110	21	1.2	0.8;
	181	1	0	0	0	0	0	1	0	20	14	1.2	0.8;
	182	2	0	0	0	0	0	1	0	20	20	1.2	0.8;
	183	1	0	0	0	4.3	0	1	0	220	6	1.2	0.8;
	184	1	23.73	12.7	0	0.52	0	1	0	220	5	1.2	0.8;
	185	1	121.9	7.4	0	1.34	0	1	0	220	3	1.2	0.8;
	186	1	0	0	0	47.75	0	1	0	380	10	1.2	0.8;
	187	1	47.35	16.4	0	4.08	0	1	0	110	22	1.2	0.8;
	188	1	0	0	0	0	0	1	0	20	4	1.2	0.8;
	189	1	0	0	0	21.39	0	1	0	380	1	1.2	0.8;
	190	1	38.14	12.5	0	6.28	0	1	0	150	8	1.2	0.8;
	191	1	54.2	7.8	0	94.9	0	1	0	400	1	1.2	0.8;
	192	1	130.6	84.9	0	4.22	0	1	0	220	7	1.2	0.8;
	193	1	7.91	2.6	0	0.74	0	1	0	110	12	1.2	0.8;
	194	1	42.1	74.61	0	37.58	0	1	0	150	1	1.2	0.8;
	195	1	-75.38	7.8	0	29.9	0	1	0	380	10	1.2	0.8;
	196	2	0	0	0	0	0	1	0	20	6	1.2	0.8;
	197	2	0	0	0	0	0	1	0	20	4	1.2	0.8;
	198	1	41.05	14.3	0	11.53	0	1	0	220	6	1.2	0.8;
	199	1	0	0	0	4.14	0	1	0	220	8	1.2	0.8;
	200	1	100.9	49.3	0	4.33	0	1	0	220	13	1.2	0.8;
...
];

%% generator data
%	bus	Pg	Qg	Qmax	Qmin	Vg	mBase	status	Pmax	Pmin	Pc1	Pc2	Qc1min	Qc1max	Qc2min	Qc2max	ramp_agc	ramp_10	ramp_30	ramp_q	apf
mpc.gen = [
	1	42.33	15.72	40	-10	1.0317	100	1	100	28.22	0	0	0	0	0	0	0	0	0	0	0;
	12	238.58	-4.09	210	-50	1.00405	100	1	500	100	0	0	0	0	0	0	0	0	0	0	0;
	18	38.02	11.21	30	-10	1.04309	100	1	100	25.35	0	0	0	0	0	0	0	0	0	0	0;
	29	34.78	14.67	30	-10	1.03332	100	1	100	23.19	0	0	0	0	0	0	0	0	0	0	0;
	33	25.35	8.5	40	-10	1.01863	100	1	100	16.9	0	0	0	0	0	0	0	0	0	0	0;
	39	214.6	55.92	210	-50	1.07328	100	1	500	100	0	0	0	0	0	0	0	0	0	0	0;
	42	16.1	-4.12	20	-20	0.98521	100	1	100	10.73	0	0	0	0	0	0	0	0	0	0	0;
	45	192.55	1.87	160	-40	1.0121	100	1	400	100	0	0	0	0	0	0	0	0	0	0	0;
	51	161	0.83	90	-90	1.01142	100	1	400	100	0	0	0	0	0	0	0	0	0	0	0;
	54	37.08	5.51	30	-10	1.02101	100	1	100	24.72	0	0	0	0	0	0	0	0	0	0	0;
	62	617.7	178.65	520	-120	1.05827	100	1	1300	400	0	0	0	0	0	0	0	0	0	0	0;
	63	617.7	178.65	520	-120	1.05827	100	1	1300	400	0	0	0	0	0	0	0	0	0	0	0;
	66	179.12	14.03	160	-40	1.03477	100	1	400	100	0	0	0	0	0	0	0	0	0	0	0;
	68	53.72	11.91	40	-10	1.03502	100	1	200	35.81	0	0	0	0	0	0	0	0	0	0	0;
	69	53.72	11.91	40	-10	1.03502	100	1	200	35.81	0	0	0	0	0	0	0	0	0	0	0;
	77	24.65	6.97	30	-10	1.03834	100	1	100	16.43	0	0	0	0	0	0	0	0	0	0	0;
	78	54.48	10.37	30	-10	1.02738	100	1	200	36.32	0	0	0	0	0	0	0	0	0	0	0;
	79	18.13	3.85	30	-10	1.01672	100	1	100	12.09	0	0	0	0	0	0	0	0	0	0	0;
	86	152.7	32.92	80	-20	1.02388	100	1	400	100	0	0	0	0	0	0	0	0	0	0	0;
	94	17.64	3.05	20	-10	1.02261	100	1	100	11.76	0	0	0	0	0	0	0	0	0	0	0;
	96	49.42	5.32	40	-10	1.04323	100	1	100	32.95	0	0	0	0	0	0	0	0	0	0	0;
	97	49.42	5.32	40	-10	1.04323	100	1	100	32.95	0	0	0	0	0	0	0	0	0	0	0;
	98	49.42	5.32	40	-10	1.04323	100	1	100	32.95	0	0	0	0	0	0	0	0	0	0	0;
	99	23.85	6.18	40	-10	1.03189	100	1	100	15.9	0	0	0	0	0	0	0	0	0	0	0;
	100	23.85	6.18	40	-10	1.03189	100	1	100	15.9	0	0	0	0	0	0	0	0	0	0	0;
	101	49.42	5.32	40	-10	1.04323	100	1	100	32.95	0	0	0	0	0	0	0	0	0	0	0;
	102	49.42	5.32	40	-10	1.04323	100	1	100	32.95	0	0	0	0	0	0	0	0	0	0	0;
	104	87.95	47.73	60	-20	1.05226	100	1	200	58.63	0	0	0	0	0	0	0	0	0	0	0;
	107	68.26	9.75	60	-20	1.02815	100	1	200	45.51	0	0	0	0	0	0	0	0	0	0	0;
	110	91.47	10.42	60	-20	1.05123	100	1	200	60.98	0	0	0	0	0	0	0	0	0	0	0;
	114	42.35	6.03	40	-10	1.03083	100	1	100	28.23	0	0	0	0	0	0	0	0	0	0	0;
	115	22.35	5.33	30	-10	1.019	100	1	100	14.9	0	0	0	0	0	0	0	0	0	0	0;
	121	36.03	16.08	30	-10	1.04536	100	1	100	24.02	0	0	0	0	0	0	0	0	0	0	0;
	132	6.52	0.05	10	-10	0.99612	100	1	100	4.35	0	0	0	0	0	0	0	0	0	0	0;
	133	36.77	13.93	30	-10	1.04232	100	1	100	24.51	0	0	0	0	0	0	0	0	0	0	0;
	134	45.54	5.69	40	-10	1.04413	100	1	100	30.36	0	0	0	0	0	0	0	0	0	0	0;
	135	42.35	6.03	40	-10	1.03083	100	1	100	28.23	0	0	0	0	0	0	0	0	0	0	0;
	136	50.83	3.96	60	-20	1.04967	100	1	200	33.89	0	0	0	0	0	0	0	0	0	0	0;
	144	17.8	10.21	30	-10	1.03463	100	1	100	11.87	0	0	0	0	0	0	0	0	0	0	0;
	145	612.01	227.35	520	-120	1.04059	100	1	1300	400	0	0	0	0	0	0	0	0	0	0	0;
	146	612.04	259.97	520	-120	1.04431	100	1	1300	400	0	0	0	0	0	0	0	0	0	0	0;
	147	612.04	259.97	520	-120	1.04431	100	1	1300	400	0	0	0	0	0	0	0	0	0	0	0;
	151	204	30.47	150	-60	1.02322	100	1	500	100	0	0	0	0	0	0	0	0	0	0	0;
	153	36.13	4.17	30	-10	1.02735	100	1	100	24.09	0	0	0	0	0	0	0	0	0	0	0;
	154	766.83	2.68	520	-120	1.05252	100	1	1600	500	0	0	0	0	0	0	0	0	0	0	0;
	156	49.34	9.15	40	-10	1.0346	100	1	100	32.89	0	0	0	0	0	0	0	0	0	0	0;
	161	49.34	9.15	40	-10	1.0346	100	1	100	32.89	0	0	0	0	0	0	0	0	0	0	0;
	162	49.34	9.15	40	-10	1.0346	100	1	100	32.89	0	0	0	0	0	0	0	0	0	0	0;
	165	42.35	6.03	40	-10	1.03083	100	1	100	28.23	0	0	0	0	0	0	0	0	0	0	0;
	179	95.02	8.09	60	-20	1.02314	100	1	200	63.35	0	0	0	0	0	0	0	0	0	0	0;
	182	34.96	12.97	30	-10	1.05494	100	1	100	23.31	0	0	0	0	0	0	0	0	0	0	0;
	196	81.07	20.71	60	-20	1.02191	100	1	200	54.05	0	0	0	0	0	0	0	0	0	0	0;
	197	245.73	1.48	160	-40	1.00534	100	1	500	100	0	0	0	0	0	0	0	0	0	0	0;
	207	27.95	4.02	30	-10	1.01646	100	1	100	18.63	0	0	0	0	0	0	0	0	0	0	0;
	220	97.72	38.87	60	-20	1.05565	100	1	200	65.15	0	0	0	0	0	0	0	0	0	0	0;
	221	97.72	38.87	60	-20	1.05565	100	1	200	65.15	0	0	0	0	0	0	0	0	0	0	0;
	222	97.66	41.74	60	-20	1.05111	100	1	200	65.11	0	0	0	0	0	0	0	0	0	0	0;
	223	97.72	38.87	60	-20	1.05565	100	1	200	65.15	0	0	0	0	0	0	0	0	0	0	0;
	224	97.66	41.74	60	-20	1.05111	100	1	200	65.11	0	0	0	0	0	0	0	0	0	0	0;
	225	97.66	41.74	60	-20	1.05111	100	1	200	65.11	0	0	0	0	0	0	0	0	0	0	0;
	229	21.03	9.77	30	-10	1.03444	100	1	100	14.02	0	0	0	0	0	0	0	0	0	0	0;
	241	601.87	179.7	520	-120	1.03762	100	1	1300	400	0	0	0	0	0	0	0	0	0	0	0;
	243	32.43	17.87	30	-10	1.05365	100	1	100	21.62	0	0	0	0	0	0	0	0	0	0	0;
	248	26.38	8.7	30	-10	1.02628	100	1	100	17.59	0	0	0	0	0	0	0	0	0	0	0;
	250	192.55	1.87	160	-40	1.0121	100	1	400	100	0	0	0	0	0	0	0	0	0	0	0;
	258	8.2	-2.56	10	-10	0.95544	100	1	100	5.47	0	0	0	0	0	0	0	0	0	0	0;
	259	38.51	8.85	30	-10	1.03425	100	1	100	25.67	0	0	0	0	0	0	0	0	0	0	0;
	266	28.48	6.95	30	-10	1.00592	100	1	100	18.99	0	0	0	0	0	0	0	0	0	0	0;
	270	18.4	-1.01	20	-20	1.00334	100	1	100	12.27	0	0	0	0	0	0	0	0	0	0	0;
	271	626.63	195.6	520	-120	1.05316	100	1	1300	400	0	0	0	0	0	0	0	0	0	0	0;
	273	626.63	190.1	520	-120	1.05146	100	1	1300	400	0	0	0	0	0	0	0	0	0	0	0;
	274	626.64	188.59	520	-120	1.05109	100	1	1300	400	0	0	0	0	0	0	0	0	0	0	0;
	275	626.64	188.59	520	-120	1.05109	100	1	1300	400	0	0	0	0	0	0	0	0	0	0	0;
	276	626.64	187.14	520	-120	1.05038	100	1	1300	400	0	0	0	0	0	0	0	0	0	0	0;
	278	627	28.92	320	-190	0.96077	100	1	1300	400	0	0	0	0	0	0	0	0	0	0	0;
	283	8	0.73	10	-10	1.00062	100	1	100	5.33	0	0	0	0	0	0	0	0	0	0	0;
	289	36.9	11.76	30	-10	1.04029	100	1	100	24.6	0	0	0	0	0	0	0	0	0	0	0;
	294	92.8	3.25	50	-50	0.99919	100	1	200	61.87	0	0	0	0	0	0	0	0	0	0	0;
	296	21	0.7	10	-10	0.98912	100	1	100	14	0	0	0	0	0	0	0	0	0	0	0;
	299	158.9	35.36	100	-30	0.99347	100	1	400	100	0	0	0	0	0	0	0	0	0	0	0;
	304	39.98	8.7	30	-10	1.038	100	1	100	26.65	0	0	0	0	0	0	0	0	0	0	0;
	305	27.73	2	30	-10	1.03041	100	1	100	18.49	0	0	0	0	0	0	0	0	0	0	0;
	306	27.73	2	30	-10	1.03041	100	1	100	18.49	0	0	0	0	0	0	0	0	0	0	0;
	307	17.66	6.95	30	-10	1.04932	100	1	100	11.77	0	0	0	0	0	0	0	0	0	0	0;
	308	17.66	6.95	30	-10	1.04932	100	1	100	11.77	0	0	0	0	0	0	0	0	0	0	0;
	309	32.08	3.64	30	-10	1.05655	100	1	100	21.39	0	0	0	0	0	0	0	0	0	0	0;
	310	32.08	3.64	30	-10	1.05655	100	1	100	21.39	0	0	0	0	0	0	0	0	0	0	0;
	311	32.08	3.64	30	-10	1.05655	100	1	100	21.39	0	0	0	0	0	0	0	0	0	0	0;
	312	32.08	3.64	30	-10	1.05655	100	1	100	21.39	0	0	0	0	0	0	0	0	0	0	0;
	315	2.06	0.62	10	-10	1.0212	100	1	100	1.37	0	0	0	0	0	0	0	0	0	0	0;
	323	419.13	110.83	520	-120	1.01699	100	1	900	200	0	0	0	0	0	0	0	0	0	0	0;
	324	5	1.91	10	-10	1.02418	100	1	100	3.33	0	0	0	0	0	0	0	0	0	0	0;
	325	4.8	-0.12	10	-10	0.99635	100	1	100	3.2	0	0	0	0	0	0	0	0	0	0	0;
	328	54.54	27.56	40	-10	1.02317	100	1	200	36.36	0	0	0	0	0	0	0	0	0	0	0;
	331	27.62	3.89	30	-20	1.00623	100	1	100	18.41	0	0	0	0	0	0	0	0	0	0	0;
	332	2	0	10	-10	0.99677	100	1	100	1.33	0	0	0	0	0	0	0	0	0	0	0;
	336	16.08	0.01	10	-10	1.01086	100	1	100	10.72	0	0	0	0	0	0	0	0	0	0	0;
	338	16.08	-0.17	10	-10	1.00038	100	1	100	10.72	0	0	0	0	0	0	0	0	0	0	0;
	345	333.1	57.13	210	-50	1.0304	100	1	700	200	0	0	0	0	0	0	0	0	0	0	0;
	346	333.1	57.13	210	-50	1.0304	100	1	700	200	0	0	0	0	0	0	0	0	0	0	0;
	351	167.59	39.08	210	-50	1.02448	100	1	400	100	0	0	0	0	0	0	0	0	0	0	0;
	354	36.42	7.96	30	-10	1.02917	100	1	100	24.28	0	0	0	0	0	0	0	0	0	0	0;
	358	165.24	104.62	210	-50	1.05072	100	1	400	100	0	0	0	0	0	0	0	0	0	0	0;
	360	84.12	16.88	60	-20	1.02864	100	1	200	56.08	0	0	0	0	0	0	0	0	0	0	0;
	361	84.12	16.88	60	-20	1.02864	100	1	200	56.08	0	0	0	0	0	0	0	0	0	0	0;
	362	84.12	16.88	60	-20	1.02864	100	1	200	56.08	0	0	0	0	0	0	0	0	0	0	0;
	363	84.12	16.88	60	-20	1.02864	100	1	200	56.08	0	0	0	0	0	0	0	0	0	0	0;
	364	5.25	0.21	10	-10	1.00564	100	1	100	3.5	0	0	0	0	0	0	0	0	0	0	0;
	365	95.2	36.17	110	-30	0.99758	100	1	200	63.47	0	0	0	0	0	0	0	0	0	0	0;
	368	84.12	16.88	60	-20	1.02864	100	1	200	56.08	0	0	0	0	0	0	0	0	0	0	0;
	369	84.12	16.88	60	-20	1.02864	100	1	200	56.08	0	0	0	0	0	0	0	0	0	0	0;
	382	102.03	10.64	60	-20	0.9906	100	1	300	68.02	0	0	0	0	0	0	0	0	0	0	0;
	383	102.24	30.32	60	-20	1.01248	100	1	300	68.16	0	0	0	0	0	0	0	0	0	0	0;
	392	1.03	0.09	10	-10	1.03064	100	1	100	0.69	0	0	0	0	0	0	0	0	0	0	0;
	394	37.9	13.47	30	-10	1.0326	100	1	100	25.27	0	0	0	0	0	0	0	0	0	0	0;
	395	37.23	4.01	30	-10	1.02828	100	1	100	24.82	0	0	0	0	0	0	0	0	0	0	0;
	396	85.28	21.31	60	-20	1.02954	100	1	200	56.85	0	0	0	0	0	0	0	0	0	0	0;
	400	94.5	8.92	50	-40	0.97901	100	1	200	63	0	0	0	0	0	0	0	0	0	0	0;
	405	33.64	6.9	30	-10	1.00773	100	1	100	22.43	0	0	0	0	0	0	0	0	0	0	0;
	406	33.64	6.9	30	-10	1.00773	100	1	100	22.43	0	0	0	0	0	0	0	0	0	0	0;
	408	34.92	9.74	30	-10	1.04349	100	1	100	23.28	0	0	0	0	0	0	0	0	0	0	0;
	423	0.99	-0.05	10	-10	1.01592	100	1	100	0.66	0	0	0	0	0	0	0	0	0	0	0;
	432	4.5	0.47	10	-10	1.0166	100	1	100	3	0	0	0	0	0	0	0	0	0	0	0;
	433	30.04	7.71	30	-10	1.01149	100	1	100	20.03	0	0	0	0	0	0	0	0	0	0	0;
	438	18.13	3.85	30	-10	1.01672	100	1	100	12.09	0	0	0	0	0	0	0	0	0	0	0;
	442	31.35	11.33	30	-10	1.04336	100	1	100	20.9	0	0	0	0	0	0	0	0	0	0	0;
	448	25.22	6.35	20	-10	1.03879	100	1	100	16.81	0	0	0	0	0	0	0	0	0	0	0;
	454	8.35	-1.53	10	-10	0.97383	100	1	100	5.57	0	0	0	0	0	0	0	0	0	0	0;
	458	31.28	-0.92	30	-10	1.00989	100	1	100	20.85	0	0	0	0	0	0	0	0	0	0	0;
	463	-19.98	270.34	100000	-100000	1.12664	100	1	100	-26.64	0	0	0	0	0	0	0	0	0	0	0;
	470	74.8	42.23	60	-20	1.04691	100	1	200	49.87	0	0	0	0	0	0	0	0	0	0	0;
	476	214.05	76.67	210	-50	1.02948	100	1	500	100	0	0	0	0	0	0	0	0	0	0	0;
	477	38.02	11.21	30	-10	1.04309	100	1	100	25.35	0	0	0	0	0	0	0	0	0	0	0;
	480	89.2	18.25	60	-20	1.03342	100	1	200	59.47	0	0	0	0	0	0	0	0	0	0	0;
	481	89.2	18.25	60	-20	1.03342	100	1	200	59.47	0	0	0	0	0	0	0	0	0	0	0;
	482	89.2	18.25	60	-20	1.03342	100	1	200	59.47	0	0	0	0	0	0	0	0	0	0	0;
	483	89.2	18.25	60	-20	1.03342	100	1	200	59.47	0	0	0	0	0	0	0	0	0	0	0;
	485	325.03	139.06	210	-50	1.05962	100	1	700	200	0	0	0	0	0	0	0	0	0	0	0;
	492	273.28	112.89	210	-50	1.04199	100	1	600	100	0	0	0	0	0	0	0	0	0	0	0;
	496	64.28	29.97	60	-20	1.00876	100	1	200	42.85	0	0	0	0	0	0	0	0	0	0	0;
	508	857.64	276.43	520	-120	1.04478	100	1	1800	500	0	0	0	0	0	0	0	0	0	0	0;
	509	857.69	282.91	520	-120	1.04439	100	1	1800	500	0	0	0	0	0	0	0	0	0	0	0;
	510	857.66	271.49	520	-120	1.0441	100	1	1800	500	0	0	0	0	0	0	0	0	0	0	0;
	514	857.64	273.87	520	-120	1.04451	100	1	1800	500	0	0	0	0	0	0	0	0	0	0	0;
	516	32.57	7.29	30	-10	1.04175	100	1	100	21.71	0	0	0	0	0	0	0	0	0	0	0;
	528	23.66	2.76	30	-10	1.0207	100	1	100	15.77	0	0	0	0	0	0	0	0	0	0	0;
	531	38.79	7.11	30	-10	1.03584	100	1	100	25.86	0	0	0	0	0	0	0	0	0	0	0;
	532	258.95	65.97	210	-50	1.0367	100	1	600	100	0	0	0	0	0	0	0	0	0	0	0;
	533	164.92	6.68	160	-40	1.01638	100	1	400	100	0	0	0	0	0	0	0	0	0	0	0;
	539	152	33.4	90	-40	0.99349	100	1	400	100	0	0	0	0	0	0	0	0	0	0	0;
	552	30.6	-1.46	20	-20	0.99834	100	1	100	20.4	0	0	0	0	0	0	0	0	0	0	0;
	559	51.5	-7.54	30	-30	0.95458	100	1	200	34.33	0	0	0	0	0	0	0	0	0	0	0;
	564	21.77	6.35	30	-10	1.0245	100	1	100	14.51	0	0	0	0	0	0	0	0	0	0	0;
	572	7	0.9	10	-10	1.00431	100	1	100	4.67	0	0	0	0	0	0	0	0	0	0	0;
	575	18.09	1.85	30	-10	1.01674	100	1	100	12.06	0	0	0	0	0	0	0	0	0	0	0;
	576	18.09	1.85	30	-10	1.01674	100	1	100	12.06	0	0	0	0	0	0	0	0	0	0	0;
	577	18.09	1.85	30	-10	1.01674	100	1	100	12.06	0	0	0	0	0	0	0	0	0	0	0;
	581	18.09	1.85	30	-10	1.01674	100	1	100	12.06	0	0	0	0	0	0	0	0	0	0	0;
	585	72.61	29.56	60	-20	1.04163	100	1	200	48.41	0	0	0	0	0	0	0	0	0	0	0;
	589	13.38	0.68	10	-10	1.00755	100	1	100	8.92	0	0	0	0	0	0	0	0	0	0	0;
	610	31.95	15.26	30	-10	1.01972	100	1	100	21.3	0	0	0	0	0	0	0	0	0	0	0;
	614	34.81	16.31	40	-10	1.0319	100	1	100	23.21	0	0	0	0	0	0	0	0	0	0	0;
	615	34.81	16.31	40	-10	1.0319	100	1	100	23.21	0	0	0	0	0	0	0	0	0	0	0;
	619	42.5	5.74	40	-10	1.0315	100	1	100	28.33	0	0	0	0	0	0	0	0	0	0	0;
	621	5.8	-0.78	10	-10	1.00394	100	1	100	3.87	0	0	0	0	0	0	0	0	0	0	0;
	623	36.03	16.08	30	-10	1.04536	100	1	100	24.02	0	0	0	0	0	0	0	0	0	0	0;
	626	43.29	23.54	60	-20	1.03577	100	1	100	28.86	0	0	0	0	0	0	0	0	0	0	0;
	635	0.13	-0.1	10	-10	1.02351	100	1	100	0.09	0	0	0	0	0	0	0	0	0	0	0;
	637	25.22	5.17	30	-10	1.04616	100	1	100	16.81	0	0	0	0	0	0	0	0	0	0	0;
	646	333.1	57.13	210	-50	1.0304	100	1	700	200	0	0	0	0	0	0	0	0	0	0	0;
	648	322.05	10.4	210	-50	1.00778	100	1	700	200	0	0	0	0	0	0	0	0	0	0	0;
	649	333.1	57.13	210	-50	1.0304	100	1	700	200	0	0	0	0	0	0	0	0	0	0	0;
	651	188.27	-7.75	210	-50	1.02835	100	1	400	100	0	0	0	0	0	0	0	0	0	0	0;
	652	188.27	-7.75	210	-50	1.02835	100	1	400	100	0	0	0	0	0	0	0	0	0	0	0;
	654	92.4	2.72	60	-20	1.01451	100	1	200	61.6	0	0	0	0	0	0	0	0	0	0	0;
	660	33.21	5.47	30	-10	1.02269	100	1	100	22.14	0	0	0	0	0	0	0	0	0	0	0;
	666	31.3	-0.77	30	-10	1.01874	100	1	100	20.87	0	0	0	0	0	0	0	0	0	0	0;
	671	25.2	-0.32	20	-10	0.99906	100	1	100	16.8	0	0	0	0	0	0	0	0	0	0	0;
	676	274.65	30.64	160	-40	1.01807	100	1	600	100	0	0	0	0	0	0	0	0	0	0	0;
	681	84.68	7.94	60	-20	1.00657	100	1	200	56.45	0	0	0	0	0	0	0	0	0	0	0;
	684	68.89	19.23	60	-20	1.03562	100	1	200	45.93	0	0	0	0	0	0	0	0	0	0	0;
	693	209.96	80.03	160	-40	1.039	100	1	500	100	0	0	0	0	0	0	0	0	0	0	0;
	695	8.4	-0.84	10	-10	1.01052	100	1	100	5.6	0	0	0	0	0	0	0	0	0	0	0;
	698	26.72	4.41	20	-10	1.01853	100	1	100	17.81	0	0	0	0	0	0	0	0	0	0	0;
	709	626.68	236.63	520	-120	1.05173	100	1	1300	400	0	0	0	0	0	0	0	0	0	0	0;
	715	23.9	3.61	30	-10	1.00784	100	1	100	15.93	0	0	0	0	0	0	0	0	0	0	0;
	717	23.12	5.58	10	0	1.02757	100	1	100	15.41	0	0	0	0	0	0	0	0	0	0	0;
	721	74.35	10.28	60	-20	0.99244	100	1	200	49.57	0	0	0	0	0	0	0	0	0	0	0;
	724	35.5	10.89	30	-10	1.04521	100	1	100	23.67	0	0	0	0	0	0	0	0	0	0	0;
	730	98.46	12.34	60	-20	1.01458	100	1	200	65.64	0	0	0	0	0	0	0	0	0	0	0;
	731	98.46	12.34	60	-20	1.01458	100	1	200	65.64	0	0	0	0	0	0	0	0	0	0	0;
	732	98.46	12.34	60	-20	1.01458	100	1	200	65.64	0	0	0	0	0	0	0	0	0	0	0;
	734	98.46	12.34	60	-20	1.01458	100	1	200	65.64	0	0	0	0	0	0	0	0	0	0	0;
	746	16	0.19	10	-10	0.99419	100	1	100	10.67	0	0	0	0	0	0	0	0	0	0	0;
	749	22.58	9.34	30	-10	1.00979	100	1	100	15.05	0	0	0	0	0	0	0	0	0	0	0;
	750	22.58	9.34	30	-10	1.00979	100	1	100	15.05	0	0	0	0	0	0	0	0	0	0	0;
	751	22.58	9.34	30	-10	1.00979	100	1	100	15.05	0	0	0	0	0	0	0	0	0	0	0;
	753	20.64	7.21	30	-10	1.01887	100	1	100	13.76	0	0	0	0	0	0	0	0	0	0	0;
	754	64.65	13.16	60	-20	1.00968	100	1	200	43.1	0	0	0	0	0	0	0	0	0	0	0;
	765	78.37	30.34	60	-20	1.03298	100	1	200	52.25	0	0	0	0	0	0	0	0	0	0	0;
...
];

%% branch data
%	fbus	tbus	r	x	b	rateA	rateB	rateC	ratio	angle	status	angmin	angmax
mpc.branch = [
	1244	2	0.001062	0.003649	0	9999	9999	9999	0	0	1	-360	360;
	2	3652	1e-07	0.000222	0	9999	9999	9999	0	0	1	-360	360;
	12710	2	1e-07	0.000222	0	9999	9999	9999	0	0	1	-360	360;
	3	11181	0.00775	0.03501	0	9999	9999	9999	0	0	1	-360	360;
	3	11505	0.01981	0.091539	0	9999	9999	9999	0	0	1	-360	360;
	3	11505	0.01944	0.093479	0	9999	9999	9999	0	0	1	-360	360;
	4	3507	0.00034	0.00162	0	9999	9999	9999	0	0	1	-360	360;
	4	7182	0.00051	0.00242	0	9999	9999	9999	0	0	1	-360	360;
	5	11276	0.01013	0.04238	0	9999	9999	9999	0	0	1	-360	360;
	5	12839	0.001841	0.0088	0	9999	9999	9999	0	0	1	-360	360;
	6	2590	0.00361	0.015211	0	9999	9999	9999	0	0	1	-360	360;
	3301	6	0.002169	0.00911	0	9999	9999	9999	0	0	1	-360	360;
	7	3830	0.015729	0.08824	0	9999	9999	9999	0	0	1	-360	360;
	7	7944	0.002909	0.01432	0	9999	9999	9999	0	0	1	-360	360;
	4204	8	0.00018	0.00224	0	9999	9999	9999	0	0	1	-360	360;
	8	4421	0.00046	0.0075	0	9999	9999	9999	0	0	1	-360	360;
	6756	8	0.00058	0.00736	0	9999	9999	9999	0	0	1	-360	360;
	8107	8	0.00034	0.00466	0	9999	9999	9999	0	0	1	-360	360;
	9	2936	0.00196	0.02049	0	9999	9999	9999	0	0	1	-360	360;
	9	6777	0.00124	0.01273	0	9999	9999	9999	0	0	1	-360	360;
	9	6905	0.00158	0.01519	0	9999	9999	9999	0	0	1	-360	360;
	9	7711	7e-05	0.00029	0	9999	9999	9999	0	0	1	-360	360;
	9	7889	9e-05	0.00079	0	9999	9999	9999	0	0	1	-360	360;
	9	11015	0.00106	0.00989	0	9999	9999	9999	0	0	1	-360	360;
	10	6376	0.035174	0.062992	0	9999	9999	9999	0	0	1	-360	360;
	10	9275	0.015901	0.059529	0	9999	9999	9999	0	0	1	-360	360;
	11	1019	7e-05	0.00068	0	9999	9999	9999	0	0	1	-360	360;
	11	9103	0.00669	0.05272	0	9999	9999	9999	0	0	1	-360	360;
	11	12420	0.01129	0.05381	0	9999	9999	9999	0	0	1	-360	360;
	11	12491	0.003	0.03068	0	9999	9999	9999	0	0	1	-360	360;
	13	6730	0.00545	0.04299	0	9999	9999	9999	0	0	1	-360	360;
	13044	13	0.01616	0.05189	0	9999	9999	9999	0	0	1	-360	360;
	4110	14	0.000599	0.00186	0	9999	9999	9999	0	0	1	-360	360;
	15	7520	1e-07	0.00028	0	9999	9999	9999	0	0	1	-360	360;
	16	2338	0.004271	0.016431	0	9999	9999	9999	0	0	1	-360	360;
	16	3402	0.00232	0.00928	0	9999	9999	9999	0	0	1	-360	360;
	4038	17	0.004039	0.023081	0	9999	9999	9999	0	0	1	-360	360;
	4113	17	0.000599	0.00356	0	9999	9999	9999	0	0	1	-360	360;
	6626	17	0.011219	0.05245	0	9999	9999	9999	0	0	1	-360	360;
	13129	19	0.00013	0.00132	0	9999	9999	9999	0	0	1	-360	360;
	13625	19	0.000159	0.001461	0	9999	9999	9999	0	0	1	-360	360;
	20	5458	0.02522	0.081	0	9999	9999	9999	0	0	1	-360	360;
	20	6164	0.04375	0.14048	0	9999	9999	9999	0	0	1	-360	360;
	20	8363	0.00591	0.01898	0	9999	9999	9999	0	0	1	-360	360;
	10880	20	0.01802	0.05786	0	9999	9999	9999	0	0	1	-360	360;
	10548	21	-0.00401	0.00794	0	9999	9999	9999	0	0	1	-360	360;
	22	2886	0.024581	0.402459	0	9999	9999	9999	0	0	1	-360	360;
	3881	22	0.04388	0.657934	0	9999	9999	9999	0	0	1	-360	360;
	4593	22	0.18987	0.937128	0	9999	9999	9999	0	0	1	-360	360;
	22	5227	0.227149	1.24461	0	9999	9999	9999	0	0	1	-360	360;
	22	5227	1e-07	0.0002	0	9999	9999	9999	0	0	1	-360	360;
	22	6561	0.00157	0.007031	0	9999	9999	9999	0	0	1	-360	360;
	10203	22	0.12525	0.756384	0	9999	9999	9999	0	0	1	-360	360;
	22	12980	0.00163	0.007031	0	9999	9999	9999	0	0	1	-360	360;
	23	1723	0.0004	0.00439	0	9999	9999	9999	0	0	1	-360	360;
	23	1723	0.00045	0.00399	0	9999	9999	9999	0	0	1	-360	360;
	13539	23	0.00019	0.00198	0	9999	9999	9999	0	0	1	-360	360;
	13539	23	0.00019	0.00214	0	9999	9999	9999	0	0	1	-360	360;
	24	1728	0.03024	0.085372	0	9999	9999	9999	0	0	1	-360	360;
	8786	24	0.028132	0.097008	0	9999	9999	9999	0	0	1	-360	360;
	24	10834	0.04157	0.14924	0	9999	9999	9999	0	0	1	-360	360;
	24	12828	0.038661	0.123091	0	9999	9999	9999	0	0	1	-360	360;
	1500	25	0.00736	0.05805	0	9999	9999	9999	0	0	1	-360	360;
	25	4293	0.00394	0.01266	0	9999	9999	9999	0	0	1	-360	360;
	25	4410	0.02534	0.08136	0	9999	9999	9999	0	0	1	-360	360;
	25	5801	0.03491	0.1121	0	9999	9999	9999	0	0	1	-360	360;
	5415	26	0.000289	0.00138	0	9999	9999	9999	0	0	1	-360	360;
	7709	26	0.00032	0.001409	0	9999	9999	9999	0	0	1	-360	360;
	7709	26	0.0003	0.000961	0	9999	9999	9999	0	0	1	-360	360;
	26	9012	0.00013	0.00055	0	9999	9999	9999	0	0	1	-360	360;
	2951	27	0.00087	0.006591	0	9999	9999	9999	0	0	1	-360	360;
	28	2544	0.016157	0.035826	0	9999	9999	9999	0	0	1	-360	360;
	28	4542	0.003727	0.020529	0	9999	9999	9999	0	0	1	-360	360;
	28	8739	0.019992	0.079231	0	9999	9999	9999	0	0	1	-360	360;
	10614	28	0.011876	0.064967	0	9999	9999	9999	0	0	1	-360	360;
	30	1176	0.006207	0.023959	0	9999	9999	9999	0	0	1	-360	360;
	30	13610	0.036744	0.106934	0	9999	9999	9999	0	0	1	-360	360;
	4841	31	0.0003	0.002669	0	9999	9999	9999	0	0	1	-360	360;
	32	3556	0.00203	0.02416	0	9999	9999	9999	0	0	1	-360	360;
	32	6212	0.00103	0.00987	0	9999	9999	9999	0	0	1	-360	360;
	32	6741	0.001	0.01459	0	9999	9999	9999	0	0	1	-360	360;
	7339	32	0.00045	0.00608	0	9999	9999	9999	0	0	1	-360	360;
	32	7515	0.00041	0.00398	0	9999	9999	9999	0	0	1	-360	360;
	32	7515	0.00038	0.00483	0	9999	9999	9999	0	0	1	-360	360;
	32	9685	0.00256	0.03401	0	9999	9999	9999	0	0	1	-360	360;
	34	7104	0.00087	0.00898	0	9999	9999	9999	0	0	1	-360	360;
	35	5582	1e-07	0.000222	0	9999	9999	9999	0	0	1	-360	360;
	1707	36	0.0023	0.01581	0	9999	9999	9999	0	0	1	-360	360;
	13300	36	0.00105	0.00877	0	9999	9999	9999	0	0	1	-360	360;
	1671	37	0.003809	0.013111	0	9999	9999	9999	0	0	1	-360	360;
	1837	37	0.003729	0.013218	0	9999	9999	9999	0	0	1	-360	360;
	7615	38	0.01124	0.039822	0	9999	9999	9999	0	0	1	-360	360;
	8073	38	0.02836	0.1134	0	9999	9999	9999	0	0	1	-360	360;
	9248	38	0.054	0.121351	0	9999	9999	9999	0	0	1	-360	360;
	38	11338	0.043418	0.124111	0	9999	9999	9999	0	0	1	-360	360;
	13104	38	1e-07	0.000222	0	9999	9999	9999	0	0	1	-360	360;
	375	40	9.1e-05	0.000961	0	9999	9999	9999	0	0	1	-360	360;
	1973	40	0.02818	0.116099	0	9999	9999	9999	0	0	1	-360	360;
	40	3035	0.00324	0.01912	0	9999	9999	9999	0	0	1	-360	360;
	11466	40	0.027	0.131289	0	9999	9999	9999	0	0	1	-360	360;
	11878	40	0.02626	0.15576	0	9999	9999	9999	0	0	1	-360	360;
	41	4865	0.000211	0.001659	0	9999	9999	9999	0	0	1	-360	360;
	43	929	0.060471	0.109992	0	9999	9999	9999	0	0	1	-360	360;
	1873	43	0.060331	0.128752	0	9999	9999	9999	0	0	1	-360	360;
	8263	43	0.021959	0.050058	0	9999	9999	9999	0	0	1	-360	360;
	43	10261	0.037752	0.085843	0	9999	9999	9999	0	0	1	-360	360;
	44	5108	0.018471	0.041802	0	9999	9999	9999	0	0	1	-360	360;
	44	10213	0.011331	0.023636	0	9999	9999	9999	0	0	1	-360	360;
	969	46	0.00519	0.028151	0	9999	9999	9999	0	0	1	-360	360;
	2035	46	0.00318	0.021159	0	9999	9999	9999	0	0	1	-360	360;
	2035	46	0.00324	0.02076	0	9999	9999	9999	0	0	1	-360	360;
	46	3390	0.008841	0.0587	0	9999	9999	9999	0	0	1	-360	360;
	3420	46	0.00126	0.007531	0	9999	9999	9999	0	0	1	-360	360;
	4107	46	0.01137	0.056789	0	9999	9999	9999	0	0	1	-360	360;
	1852	47	0.017843	0.068107	0	9999	9999	9999	0	0	1	-360	360;
	7424	47	0.019099	0.057876	0	9999	9999	9999	0	0	1	-360	360;
	47	7495	0.05019	0.152107	0	9999	9999	9999	0	0	1	-360	360;
	9381	47	0.020727	0.053512	0	9999	9999	9999	0	0	1	-360	360;
	9921	47	0.016893	0.050967	0	9999	9999	9999	0	0	1	-360	360;
	9921	47	0.016562	0.052033	0	9999	9999	9999	0	0	1	-360	360;
	113	48	1e-07	0.000469	0	9999	9999	9999	0	0	1	-360	360;
	5125	48	0.00094	0.012531	0	9999	9999	9999	0	0	1	-360	360;
	6237	48	0.00106	0.01595	0	9999	9999	9999	0	0	1	-360	360;
	48	8934	0.000289	0.001039	0	9999	9999	9999	0	0	1	-360	360;
	48	12513	0.000219	0.00088	0	9999	9999	9999	0	0	1	-360	360;
	49	1681	0.002009	0.01464	0	9999	9999	9999	0	0	1	-360	360;
	12062	49	0.00076	0.005622	0	9999	9999	9999	0	0	1	-360	360;
	50	7481	0.01595	0.022281	0	9999	9999	9999	0	0	1	-360	360;
	2096	52	0.04645	0.14916	0	9999	9999	9999	0	0	1	-360	360;
	12848	52	0.03001	0.09637	0	9999	9999	9999	0	0	1	-360	360;
	53	2965	0.00163	0.01287	0	9999	9999	9999	0	0	1	-360	360;
	53	8622	0.00055	0.00621	0	9999	9999	9999	0	0	1	-360	360;
	55	301	0.002659	0.02	0	9999	9999	9999	0	0	1	-360	360;
	1294	55	0.0035	0.022211	0	9999	9999	9999	0	0	1	-360	360;
	55	5194	0.003031	0.02343	0	9999	9999	9999	0	0	1	-360	360;
	12750	55	0.003591	0.02137	0	9999	9999	9999	0	0	1	-360	360;
	56	1284	0.018868	0.083661	0	9999	9999	9999	0	0	1	-360	360;
	56	2267	0.01019	0.027917	0	9999	9999	9999	0	0	1	-360	360;
	5184	56	0.004562	0.017174	0	9999	9999	9999	0	0	1	-360	360;
	57	5918	0.016339	0.035909	0	9999	9999	9999	0	0	1	-360	360;
	57	11404	0.073463	0.189678	0	9999	9999	9999	0	0	1	-360	360;
	58	3747	0.023678	0.070702	0	9999	9999	9999	0	0	1	-360	360;
	58	6216	0.029273	0.069752	0	9999	9999	9999	0	0	1	-360	360;
	1776	59	0.017562	0.070818	0	9999	9999	9999	0	0	1	-360	360;
	59	5247	0.017719	0.054017	0	9999	9999	9999	0	0	1	-360	360;
	60	4007	0.00486	0.024331	0	9999	9999	9999	0	0	1	-360	360;
	60	9311	0.0053	0.035521	0	9999	9999	9999	0	0	1	-360	360;
	60	10216	0.00663	0.04181	0	9999	9999	9999	0	0	1	-360	360;
	11772	60	0.003599	0.02026	0	9999	9999	9999	0	0	1	-360	360;
	11772	60	0.00318	0.020669	0	9999	9999	9999	0	0	1	-360	360;
	962	61	7e-05	0.00079	0	9999	9999	9999	0	0	1	-360	360;
	64	3615	0.007729	0.025401	0	9999	9999	9999	0	0	1	-360	360;
	64	8256	0.00295	0.0162	0	9999	9999	9999	0	0	1	-360	360;
	64	9025	0.001581	0.0087	0	9999	9999	9999	0	0	1	-360	360;
	65	287	0.00772	0.033818	0	9999	9999	9999	0	0	1	-360	360;
	65	1300	0.003071	0.004551	0	9999	9999	9999	0	0	1	-360	360;
	65	1300	0.003009	0.004649	0	9999	9999	9999	0	0	1	-360	360;
	65	3578	9.8e-05	0.000222	0	9999	9999	9999	0	0	1	-360	360;
	65	10546	0.008009	0.04	0	9999	9999	9999	0	0	1	-360	360;
	12722	65	0.002671	0.018929	0	9999	9999	9999	0	0	1	-360	360;
	65	13317	0.000822	0.00656	0	9999	9999	9999	0	0	1	-360	360;
	67	740	0.012132	0.023322	0	9999	9999	9999	0	0	1	-360	360;
	67	1842	0.028322	0.109331	0	9999	9999	9999	0	0	1	-360	360;
	5925	67	0.011	0.029826	0	9999	9999	9999	0	0	1	-360	360;
	67	10072	0.003636	0.014636	0	9999	9999	9999	0	0	1	-360	360;
	1782	70	0.0137	0.10436	0	9999	9999	9999	0	0	1	-360	360;
	70	7315	0.004909	0.02468	0	9999	9999	9999	0	0	1	-360	360;
	12979	70	0.00795	0.0483	0	9999	9999	9999	0	0	1	-360	360;
	73	3452	0.00076	0.00364	0	9999	9999	9999	0	0	1	-360	360;
	73	8685	0.00075	0.00474	0	9999	9999	9999	0	0	1	-360	360;
	80	587	0.005081	0.02426	0	9999	9999	9999	0	0	1	-360	360;
	2314	80	0.470062	1.36364	0	9999	9999	9999	0	0	1	-360	360;
	80	12360	0.035969	0.35219	0	9999	9999	9999	0	0	1	-360	360;
	80	13555	0.018021	0.1825	0	9999	9999	9999	0	0	1	-360	360;
	80	13555	0.0033	0.01864	0	9999	9999	9999	0	0	1	-360	360;
	2927	81	0.01485	0.07078	0	9999	9999	9999	0	0	1	-360	360;
	81	10716	0.01183	0.0564	0	9999	9999	9999	0	0	1	-360	360;
	81	11876	0.00432	0.03405	0	9999	9999	9999	0	0	1	-360	360;
	82	326	0.0003	0.00385	0	9999	9999	9999	0	0	1	-360	360;
	83	3377	0.00239	0.017281	0	9999	9999	9999	0	0	1	-360	360;
	83	8374	0.00339	0.019669	0	9999	9999	9999	0	0	1	-360	360;
	84	8013	0.026322	0.044388	0	9999	9999	9999	0	0	1	-360	360;
	8828	84	0.02419	0.041471	0	9999	9999	9999	0	0	1	-360	360;
	8828	84	0.024719	0.040702	0	9999	9999	9999	0	0	1	-360	360;
	85	9915	0.01438	0.045364	0	9999	9999	9999	0	0	1	-360	360;
	85	10644	0.037248	0.081901	0	9999	9999	9999	0	0	1	-360	360;
	89	3635	0.00016	0.00194	0	9999	9999	9999	0	0	1	-360	360;
	89	3635	0.00017	0.00191	0	9999	9999	9999	0	0	1	-360	360;
	89	9948	8e-05	0.00081	0	9999	9999	9999	0	0	1	-360	360;
	89	9948	7e-05	0.00085	0	9999	9999	9999	0	0	1	-360	360;
	89	11659	0.00048	0.00322	0	9999	9999	9999	0	0	1	-360	360;
	89	11659	0.0005	0.00317	0	9999	9999	9999	0	0	1	-360	360;
	90	3016	0.038017	0.110653	0	9999	9999	9999	0	0	1	-360	360;
	7497	90	0.025174	0.07938	0	9999	9999	9999	0	0	1	-360	360;
	7964	90	0.043017	0.128446	0	9999	9999	9999	0	0	1	-360	360;
	10960	90	1e-07	0.00076	0	9999	9999	9999	0	0	1	-360	360;
	91	131	0.521247	2.92722	0	9999	9999	9999	0	0	1	-360	360;
	1789	91	1.8606	8.19391	0	9999	9999	9999	0	0	1	-360	360;
	91	3895	0.00082	0.01007	0	9999	9999	9999	0	0	1	-360	360;
	91	3895	0.188989	1.11489	0	9999	9999	9999	0	0	1	-360	360;
...
];

%%-----  OPF Data  -----%%
%% generator cost data
%	1	startup	shutdown	n	x1	y1	...	xn	yn
%	2	startup	shutdown	n	c(n-1)	...	c0
mpc.gencost = [
	2	0	0	3	0	2	0;
	2	0	0	3	0	3	0;
	2	0	0	3	0	4	0;
	2	0	0	3	0	5	0;
	2	0	0	3	0	6	0;
	2	0	0	3	0	7	0;
	2	0	0	3	0	8	0;
	2	0	0	3	0	9	0;
	2	0	0	3	0	10	0;
	2	0	0	3	0	1	0;
	2	0	0	3	0	2	0;
	2	0	0	3	0	3	0;
	2	0	0	3	0	4	0;
	2	0	0	3	0	5	0;
	2	0	0	3	0	6	0;
	2	0	0	3	0	7	0;
	2	0	0	3	0	8	0;
	2	0	0	3	0	9	0;
	2	0	0	3	0	10	0;
	2	0	0	3	0	1	0;
	2	0	0	3	0	2	0;
	2	0	0	3	0	3	0;
	2	0	0	3	0	4	0;
	2	0	0	3	0	5	0;
	2	0	0	3	0	6	0;
	2	0	0	3	0	7	0;
	2	0	0	3	0	8	0;
	2	0	0	3	0	9	0;
	2	0	0	3	0	10	0;
	2	0	0	3	0	1	0;
	2	0	0	3	0	2	0;
	2	0	0	3	0	3	0;
	2	0	0	3	0	4	0;
	2	0	0	3	0	5	0;
	2	0	0	3	0	6	0;
	2	0	0	3	0	7	0;
	2	0	0	3	0	8	0;
	2	0	0	3	0	9	0;
	2	0	0	3	0	10	0;
	2	0	0	3	0	1	0;
	2	0	0	3	0	2	0;
	2	0	0	3	0	3	0;
	2	0	0	3	0	4	0;
	2	0	0	3	0	5	0;
	2	0	0	3	0	6	0;
	2	0	0	3	0	7	0;
	2	0	0	3	0	8	0;
	2	0	0	3	0	9	0;
	2	0	0	3	0	10	0;
	2	0	0	3	0	1	0;
	2	0	0	3	0	2	0;
	2	0	0	3	0	3	0;
	2	0	0	3	0	4	0;
	2	0	0	3	0	5	0;
	2	0	0	3	0	6	0;
	2	0	0	3	0	7	0;
	2	0	0	3	0	8	0;
	2	0	0	3	0	9	0;
	2	0	0	3	0	10	0;
	2	0	0	3	0	1	0;
	2	0	0	3	0	2	0;
	2	0	0	3	0	3	0;
	2	0	0	3	0	4	0;
	2	0	0	3	0	5	0;
	2	0	0	3	0	6	0;
	2	0	0	3	0	7	0;
	2	0	0	3	0	8	0;
	2	0	0	3	0	9	0;
	2	0	0	3	0	10	0;
	2	0	0	3	0	1	0;
	2	0	0	3	0	2	0;
	2	0	0	3	0	3	0;
	2	0	0	3	0	4	0;
	2	0	0	3	0	5	0;
	2	0	0	3	0	6	0;
	2	0	0	3	0	7	0;
	2	0	0	3	0	8	0;
	2	0	0	3	0	9	0;
	2	0	0	3	0	10	0;
	2	0	0	3	0	1	0;
	2	0	0	3	0	2	0;
	2	0	0	3	0	3	0;
	2	0	0	3	0	4	0;
	2	0	0	3	0	5	0;
	2	0	0	3	0	6	0;
	2	0	0	3	0	7	0;
	2	0	0	3	0	8	0;
	2	0	0	3	0	9	0;
	2	0	0	3	0	10	0;
	2	0	0	3	0	1	0;
	2	0	0	3	0	2	0;
	2	0	0	3	0	3	0;
	2	0	0	3	0	4	0;
	2	0	0	3	0	5	0;
	2	0	0	3	0	6	0;
	2	0	0	3	0	7	0;
	2	0	0	3	0	8	0;
	2	0	0	3	0	9	0;
	2	0	0	3	0	10	0;
	2	0	0	3	0	1	0;
	2	0	0	3	0	2	0;
	2	0	0	3	0	3	0;
	2	0	0	3	0	4	0;
	2	0	0	3	0	5	0;
	2	0	0	3	0	6	0;
	2	0	0	3	0	7	0;
	2	0	0	3	0	8	0;
	2	0	0	3	0	9	0;
	2	0	0	3	0	10	0;
	2	0	0	3	0	1	0;
	2	0	0	3	0	2	0;
	2	0	0	3	0	3	0;
	2	0	0	3	0	4	0;
	2	0	0	3	0	5	0;
	2	0	0	3	0	6	0;
	2	0	0	3	0	7	0;
	2	0	0	3	0	8	0;
	2	0	0	3	0	9	0;
	2	0	0	3	0	10	0;
	2	0	0	3	0	1	0;
	2	0	0	3	0	2	0;
	2	0	0	3	0	3	0;
	2	0	0	3	0	4	0;
	2	0	0	3	0	5	0;
	2	0	0	3	0	6	0;
	2	0	0	3	0	7	0;
	2	0	0	3	0	8	0;
	2	0	0	3	0	9	0;
	2	0	0	3	0	10	0;
	2	0	0	3	0	1	0;
	2	0	0	3	0	2	0;
	2	0	0	3	0	3	0;
	2	0	0	3	0	4	0;
	2	0	0	3	0	5	0;
	2	0	0	3	0	6	0;
	2	0	0	3	0	7	0;
	2	0	0	3	0	8	0;
	2	0	0	3	0	9	0;
	2	0	0	3	0	10	0;
	2	0	0	3	0	1	0;
	2	0	0	3	0	2	0;
	2	0	0	3	0	3	0;
	2	0	0	3	0	4	0;
	2	0	0	3	0	5	0;
	2	0	0	3	0	6	0;
	2	0	0	3	0	7	0;
	2	0	0	3	0	8	0;
	2	0	0	3	0	9	0;
	2	0	0	3	0	10	0;
	2	0	0	3	0	1	0;
	2	0	0	3	0	2	0;
	2	0	0	3	0	3	0;
	2	0	0	3	0	4	0;
	2	0	0	3	0	5	0;
	2	0	0	3	0	6	0;
	2	0	0	3	0	7	0;
	2	0	0	3	0	8	0;
	2	0	0	3	0	9	0;
	2	0	0	3	0	10	0;
	2	0	0	3	0	1	0;
	2	0	0	3	0	2	0;
	2	0	0	3	0	3	0;
	2	0	0	3	0	4	0;
	2	0	0	3	0	5	0;
	2	0	0	3	0	6	0;
	2	0	0	3	0	7	0;
	2	0	0	3	0	8	0;
	2	0	0	3	0	9	0;
	2	0	0	3	0	10	0;
	2	0	0	3	0	1	0;
	2	0	0	3	0	2	0;
	2	0	0	3	0	3	0;
	2	0	0	3	0	4	0;
	2	0	0	3	0	5	0;
	2	0	0	3	0	6	0;
	2	0	0	3	0	7	0;
	2	0	0	3	0	8	0;
	2	0	0	3	0	9	0;
	2	0	0	3	0	10	0;
	2	0	0	3	0	1	0;
	2	0	0	3	0	2	0;
	2	0	0	3	0	3	0;
	2	0	0	3	0	4	0;
	2	0	0	3	0	5	0;
	2	0	0	3	0	6	0;
	2	0	0	3	0	7	0;
	2	0	0	3	0	8	0;
	2	0	0	3	0	9	0;
	2	0	0	3	0	10	0;
	2	0	0	3	0	1	0;
	2	0	0	3	0	2	0;
	2	0	0	3	0	3	0;
	2	0	0	3	0	4	0;
	2	0	0	3	0	5	0;
	2	0	0	3	0	6	0;
	2	0	0	3	0	7	0;
	2	0	0	3	0	8	0;
	2	0	0	3	0	9	0;
	2	0	0	3	0	10	0;
	2	0	0	3	0	1	0;
...
];

%% bus names
mpc.bus_name = {
	'1           ';
	'2           ';
	'3           ';
	'4           ';
	'5           ';
	'6           ';
	'7           ';
	'8           ';
	'9           ';
	'10          ';
	'11          ';
	'12          ';
	'13          ';
	'14          ';
	'15          ';
	'16          ';
	'17          ';
	'18          ';
	'19          ';
	'20          ';
	'21          ';
	'22          ';
	'23          ';
	'24          ';
	'25          ';
	'26          ';
	'27          ';
	'28          ';
	'29          ';
	'30          ';
	'31          ';
	'32          ';
	'33          ';
	'34          ';
	'35          ';
	'36          ';
	'37          ';
	'38          ';
	'39          ';
	'40          ';
	'41          ';
	'42          ';
	'43          ';
	'44          ';
	'45          ';
	'46          ';
	'47          ';
	'48          ';
	'49          ';
	'50          ';
	'51          ';
	'52          ';
	'53          ';
	'54          ';
	'55          ';
	'56          ';
	'57          ';
	'58          ';
	'59          ';
	'60          ';
	'61          ';
	'62          ';
	'63          ';
	'64          ';
	'65          ';
	'66          ';
	'67          ';
	'68          ';
	'69          ';
	'70          ';
	'71          ';
	'72          ';
	'73          ';
	'74          ';
	'75          ';
	'76          ';
	'77          ';
	'78          ';
	'79          ';
	'80          ';
	'81          ';
	'82          ';
	'83          ';
	'84          ';
	'85          ';
	'86          ';
	'87          ';
	'88          ';
	'89          ';
	'90          ';
	'91          ';
	'92          ';
	'93          ';
	'94          ';
	'95          ';
	'96          ';
	'97          ';
	'98          ';
	'99          ';
	'100         ';
	'101         ';
	'102         ';
	'103         ';
	'104         ';
	'105         ';
	'106         ';
	'107         ';
	'108         ';
	'109         ';
	'110         ';
	'111         ';
	'112         ';
	'113         ';
	'114         ';
	'115         ';
	'116         ';
	'117         ';
	'118         ';
	'119         ';
	'120         ';
	'121         ';
	'122         ';
	'123         ';
	'124         ';
	'125         ';
	'126         ';
	'127         ';
	'128         ';
	'129         ';
	'130         ';
	'131         ';
	'132         ';
	'133         ';
	'134         ';
	'135         ';
	'136         ';
	'137         ';
	'138         ';
	'139         ';
	'140         ';
	'141         ';
	'142         ';
	'143         ';
	'144         ';
	'145         ';
	'146         ';
	'147         ';
	'148         ';
	'149         ';
	'150         ';
	'151         ';
	'152         ';
	'153         ';
	'154         ';
	'155         ';
	'156         ';
	'157         ';
	'158         ';
	'159         ';
	'160         ';
	'161         ';
	'162         ';
	'163         ';
	'164         ';
	'165         ';
	'166         ';
	'167         ';
	'168         ';
	'169         ';
	'170         ';
	'171         ';
	'172         ';
	'173         ';
	'174         ';
	'175         ';
	'176         ';
	'177         ';
	'178         ';
	'179         ';
	'180         ';
	'181         ';
	'182         ';
	'183         ';
	'184         ';
	'185         ';
	'186         ';
	'187         ';
	'188         ';
	'189         ';
	'190         ';
	'191         ';
	'192         ';
	'193         ';
	'194         ';
	'195         ';
	'196         ';
	'197         ';
	'198         ';
	'199         ';
	'200         ';
...
};
